# generated using pymatgen
data_CeO2
_symmetry_space_group_name_H-M   'P 1'
_cell_length_a   5.46745000
_cell_length_b   5.46745000
_cell_length_c   5.46745000
_cell_angle_alpha   90.00000000
_cell_angle_beta   90.00000000
_cell_angle_gamma   90.00000000
_symmetry_Int_Tables_number   1
_chemical_formula_structural   CeO2
_chemical_formula_sum   'Ce4 O8'
_cell_volume   163.43853480
_cell_formula_units_Z   4
loop_
 _symmetry_equiv_pos_site_id
 _symmetry_equiv_pos_as_xyz
  1  'x, y, z'
loop_
 _atom_site_type_symbol
 _atom_site_label
 _atom_site_symmetry_multiplicity
 _atom_site_fract_x
 _atom_site_fract_y
 _atom_site_fract_z
 _atom_site_occupancy
  Ce  Ce0  1  0.00000000  0.00000000  0.00000000  1
  Ce  Ce1  1  0.00000000  0.50000000  0.50000000  1
  Ce  Ce2  1  0.50000000  0.00000000  0.50000000  1
  Ce  Ce3  1  0.50000000  0.50000000  0.00000000  1
  O  O4  1  0.25000000  0.25000000  0.75000000  1
  O  O5  1  0.25000000  0.75000000  0.75000000  1
  O  O6  1  0.25000000  0.75000000  0.25000000  1
  O  O7  1  0.25000000  0.25000000  0.25000000  1
  O  O8  1  0.75000000  0.25000000  0.25000000  1
  O  O9  1  0.75000000  0.75000000  0.25000000  1
  O  O10  1  0.75000000  0.75000000  0.75000000  1
  O  O11  1  0.75000000  0.25000000  0.75000000  1
